gem5 Simulator System.  http://gem5.org
gem5 is copyrighted software; use the --copyright option for details.

gem5 compiled May 21 2018 14:44:59
gem5 started May 24 2018 00:37:29
command line: build/X86/gem5.opt configs/systems/two_level.py

Global frequency set at 1000000000000 ticks per second
0: system.remote_gdb: listening for remote gdb on port 7000
Beginning simulation!
info: Entering event queue @ 0.  Starting simulation...
Hello world!
Exiting @ tick 45062000 because exiting with last active thread context